     PTI INTERACTIVE POWER SYSTEM SIMULATOR--PSS(R)E     FRI, APR 24 2020   5:26
 IEEE TF ON VOLTAGE STABILITY BENCHMARK MODELS                            RATING   %MVA FOR TRANSFORMERS
 TEST SYSTEM DATA - NORDIC SYSTEM                                          SET A   % I  FOR NON-TRANSFORMER BRANCHES

 BUS      1 LOAD 1041   20.000 CKT     MW     MVAR     MVA   % 0.9987PU  -84.74  X--- LOSSES ---X X---- AREA -----X X---- ZONE -----X      1
                                                               19.974KV               MW     MVAR    2 CENTRAL         1
  TO LOAD-PQ                         600.0   148.2   618.0
  TO   1041 1041        130.00  1   -600.0  -148.2   618.0  52 1.0000UN              0.00   31.91    2 CENTRAL         1

 BUS      2 LOAD 1042   20.000 CKT     MW     MVAR     MVA   % 1.0012PU  -70.52  X--- LOSSES ---X X---- AREA -----X X---- ZONE -----X      2
                                                               20.023KV               MW     MVAR    2 CENTRAL         1
  TO LOAD-PQ                         330.0    71.0   337.6
  TO   1042 1042        130.00  1   -330.0   -71.0   337.6  56 1.0000UN              0.00   18.95    2 CENTRAL         1

 BUS      3 LOAD 1043   20.000 CKT     MW     MVAR     MVA   % 0.9973PU  -80.00  X--- LOSSES ---X X---- AREA -----X X---- ZONE -----X      3
                                                               19.947KV               MW     MVAR    2 CENTRAL         1
  TO LOAD-PQ                         260.0    83.8   273.2
  TO   1043 1043        130.00  1   -260.0   -83.8   273.2  59 1.0000UN              0.00   16.31    2 CENTRAL         1

 BUS      4 LOAD 1044   20.000 CKT     MW     MVAR     MVA   % 0.9995PU  -70.70  X--- LOSSES ---X X---- AREA -----X X---- ZONE -----X      4
                                                               19.991KV               MW     MVAR    2 CENTRAL         1
  TO LOAD-PQ                         840.0   252.0   877.0
  TO   1044 1044        130.00  1   -840.0  -252.0   877.0  55 1.0000UN              0.00   48.11    2 CENTRAL         1

 BUS      5 LOAD 1043   20.000 CKT     MW     MVAR     MVA   % 0.9960PU  -74.62  X--- LOSSES ---X X---- AREA -----X X---- ZONE -----X      5
                                                               19.920KV               MW     MVAR    2 CENTRAL         1
  TO LOAD-PQ                         720.0   190.4   744.7
  TO   1045 1045        130.00  1   -720.0  -190.4   744.7  53 1.0000UN              0.00   39.94    2 CENTRAL         1

 BUS     11 LOAD 1011   20.000 CKT     MW     MVAR     MVA   % 1.0023PU   -9.45  X--- LOSSES ---X X---- AREA -----X X---- ZONE -----X     11
                                                               20.046KV               MW     MVAR    1 NORTH           1
  TO LOAD-PQ                         200.0    68.8   211.5
  TO   1011 1011        130.00  1   -200.0   -68.8   211.5  53 1.0000UN              0.00   11.13    1 NORTH           1

 BUS     12 LOAD 1012   20.000 CKT     MW     MVAR     MVA   % 0.9972PU   -5.94  X--- LOSSES ---X X---- AREA -----X X---- ZONE -----X     12
                                                               19.944KV               MW     MVAR    1 NORTH           1
  TO LOAD-PQ                         300.0    83.8   311.5
  TO   1012 1012        130.00  1   -300.0   -83.8   311.5  52 1.0000UN              0.00   16.26    1 NORTH           1

 BUS     13 LOAD 1013   20.000 CKT     MW     MVAR     MVA   % 0.9956PU   -1.58  X--- LOSSES ---X X---- AREA -----X X---- ZONE -----X     13
                                                               19.912KV               MW     MVAR    1 NORTH           1
  TO LOAD-PQ                         100.0    34.4   105.8
  TO   1013 1013        130.00  1   -100.0   -34.4   105.8  53 1.0000UN              0.00    5.64    1 NORTH           1

 BUS     22 LOAD 1022   20.000 CKT     MW     MVAR     MVA   % 0.9950PU  -21.91  X--- LOSSES ---X X---- AREA -----X X---- ZONE -----X     22
                                                               19.900KV               MW     MVAR    1 NORTH           1
  TO LOAD-PQ                         280.0    79.9   291.2
  TO   1022 1022        130.00  1   -280.0   -79.9   291.2  52 1.0000UN              0.00   15.29    1 NORTH           1

 BUS     31 LOAD 2031   20.000 CKT     MW     MVAR     MVA   % 1.0040PU  -39.49  X--- LOSSES ---X X---- AREA -----X X---- ZONE -----X     31
                                                               20.081KV               MW     MVAR    1 NORTH           1
  TO LOAD-PQ                         100.0    24.7   103.0
  TO   2031 2031        220.00  1   -100.0   -24.7   103.0  52 1.0000UN              0.00    5.26    1 NORTH           1

 BUS     32 LOAD 2032   20.000 CKT     MW     MVAR     MVA   % 0.9977PU  -26.79  X--- LOSSES ---X X---- AREA -----X X---- ZONE -----X     32
                                                               19.954KV               MW     MVAR    1 NORTH           1
  TO LOAD-PQ                         200.0    39.6   203.9
  TO   2032 2032        220.00  1   -200.0   -39.6   203.9  51 1.0000UN              0.00   10.44    1 NORTH           1

 BUS     41 LOAD 4041   20.000 CKT     MW     MVAR     MVA   % 0.9966PU  -57.17  X--- LOSSES ---X X---- AREA -----X X---- ZONE -----X     41
                                                               19.933KV               MW     MVAR    2 CENTRAL         1
  TO LOAD-PQ                         540.0   131.4   555.8
  TO   4041 4041        400.00  1   -540.0  -131.4   555.8  51 1.0000UN              0.00   28.79    2 CENTRAL         1

 BUS     42 LOAD 4042   20.000 CKT     MW     MVAR     MVA   % 0.9951PU  -60.25  X--- LOSSES ---X X---- AREA -----X X---- ZONE -----X     42
                                                               19.903KV               MW     MVAR    2 CENTRAL         1
  TO LOAD-PQ                         400.0   127.4   419.8
  TO   4042 4042        400.00  1   -400.0  -127.4   419.8  52 1.0000UN              0.00   22.25    2 CENTRAL         1

 BUS     43 LOAD 4043   20.000 CKT     MW     MVAR     MVA   % 1.0012PU  -66.36  X--- LOSSES ---X X---- AREA -----X X---- ZONE -----X     43
                                                               20.024KV               MW     MVAR    2 CENTRAL         1
  TO LOAD-PQ                         900.0   254.6   935.3
  TO   4043 4043        400.00  1   -900.0  -254.6   935.3  52 1.0000UN              0.00   48.48    2 CENTRAL         1

 BUS     46 LOAD 4046   20.000 CKT     MW     MVAR     MVA   % 0.9990PU  -66.96  X--- LOSSES ---X X---- AREA -----X X---- ZONE -----X     46
                                                               19.979KV               MW     MVAR    2 CENTRAL         1
  TO LOAD-PQ                         700.0   211.8   731.3
  TO   4046 4046        400.00  1   -700.0  -211.8   731.3  52 1.0000UN              0.00   38.28    2 CENTRAL         1

 BUS     47 LOAD 4047   20.000 CKT     MW     MVAR     MVA   % 0.9949PU  -62.41  X--- LOSSES ---X X---- AREA -----X X---- ZONE -----X     47
                                                               19.898KV               MW     MVAR    2 CENTRAL         1
  TO LOAD-PQ                         100.0    44.0   109.3
  TO   4047 4047        400.00  1   -100.0   -44.0   109.3  55 1.0000UN              0.00    6.03    2 CENTRAL         1

 BUS     51 LOAD 4051   20.000 CKT     MW     MVAR     MVA   % 0.9977PU  -73.87  X--- LOSSES ---X X---- AREA -----X X---- ZONE -----X     51
                                                               19.954KV               MW     MVAR    2 CENTRAL         1
  TO LOAD-PQ                         800.0   258.2   840.6
  TO   4051 4051        400.00  1   -800.0  -258.2   840.6  53 1.0000UN              0.00   44.37    2 CENTRAL         1

 BUS     61 LOAD 4061   20.000 CKT     MW     MVAR     MVA   % 0.9948PU  -60.81  X--- LOSSES ---X X---- AREA -----X X---- ZONE -----X     61
                                                               19.896KV               MW     MVAR    3 SOUTH           1
  TO LOAD-PQ                         500.0   122.5   514.8
  TO   4061 4061        400.00  1   -500.0  -122.5   514.8  51 1.0000UN              0.00   26.78    3 SOUTH           1

 BUS     62 LOAD 4062   20.000 CKT     MW     MVAR     MVA   % 1.0002PU  -57.21  X--- LOSSES ---X X---- AREA -----X X---- ZONE -----X     62
                                                               20.004KV               MW     MVAR    3 SOUTH           1
  TO LOAD-PQ                         300.0    83.8   311.5
  TO   4062 4062        400.00  1   -300.0   -83.8   311.5  52 1.0000UN              0.00   16.16    3 SOUTH           1

 BUS     63 LOAD 4063   20.000 CKT     MW     MVAR     MVA   % 0.9992PU  -53.52  X--- LOSSES ---X X---- AREA -----X X---- ZONE -----X     63
                                                               19.984KV               MW     MVAR    3 SOUTH           1
  TO LOAD-PQ                         590.0   264.6   646.6
  TO   4063 4063        400.00  1   -590.0  -264.6   646.6  55 1.0000UN              0.00   35.49    3 SOUTH           1

 BUS     71 LOAD 4071   20.000 CKT     MW     MVAR     MVA   % 1.0026PU   -7.80  X--- LOSSES ---X X---- AREA -----X X---- ZONE -----X     71
                                                               20.053KV               MW     MVAR    4 EQUIV           1
  TO LOAD-PQ                         300.0    83.8   311.5
  TO   4071 4071        400.00  1   -300.0   -83.8   311.5  52 1.0000UN              0.00   16.09    4 EQUIV           1

 BUS     72 LOAD 4072   20.000 CKT     MW     MVAR     MVA   % 0.9974PU   -6.83  X--- LOSSES ---X X---- AREA -----X X---- ZONE -----X     72
                                                               19.948KV               MW     MVAR    4 EQUIV           1
  TO LOAD-PQ                        2000.0   396.1  2038.8
  TO   4072 4072        400.00  1  -2000.0  -396.1  2038.8  51 1.0000UN              0.00  104.47    4 EQUIV           1

 BUS   1011 1011        130.00 CKT     MW     MVAR     MVA   % 1.0615PU   -6.65  X--- LOSSES ---X X---- AREA -----X X---- ZONE -----X   1011
                                                               138.00KV               MW     MVAR    1 NORTH           1
  TO     11 LOAD 1011   20.000  1    200.0    79.9   215.4  54 1.0400LK              0.00   11.13    1 NORTH           1
  TO   1013 1013        130.00  1   -212.1    55.1   219.1  59                       4.27   29.87    1 NORTH           1
  TO   1013 1013        130.00  2   -212.1    55.1   219.1  59                       4.27   29.87    1 NORTH           1
  TO   4011 4011        400.00  1    224.1  -190.0   293.8  24 1.0000UN              0.00    6.13    1 NORTH           1

 BUS   1012 1012        130.00 CKT     MW     MVAR     MVA   % 1.0631PU   -3.10  X--- LOSSES ---X X---- AREA -----X X---- ZONE -----X   1012
                                                               138.20KV               MW     MVAR    1 NORTH           1
  TO     12 LOAD 1012   20.000  1    300.0   100.1   316.2  53 1.0500LK              0.00   16.26    1 NORTH           1
  TO   1014 1014        130.00  1   -154.7    35.8   158.8  43                       3.14   20.14    1 NORTH           1
  TO   1014 1014        130.00  2   -154.7    35.8   158.8  43                       3.14   20.14    1 NORTH           1
  TO   4012 4012        400.00  1    609.4  -171.3   633.0  51 1.0000UN              0.00   28.36    1 NORTH           1
  TO  50001 G1          15.000  1   -600.0    -0.4   600.0  75 1.0000LK              0.00   59.73    1 NORTH           1

 BUS   1013 1013        130.00 CKT     MW     MVAR     MVA   % 1.0547PU    1.26  X--- LOSSES ---X X---- AREA -----X X---- ZONE -----X   1013
                                                               137.11KV               MW     MVAR    1 NORTH           1
  TO     13 LOAD 1013   20.000  1    100.0    40.0   107.7  54 1.0400LK              0.00    5.64    1 NORTH           1
  TO   1011 1011        130.00  1    216.3   -26.7   218.0  59                       4.27   29.87    1 NORTH           1
  TO   1011 1011        130.00  2    216.3   -26.7   218.0  59                       4.27   29.87    1 NORTH           1
  TO   1014 1014        130.00  1   -116.3     5.4   116.5  32                       0.85    6.10    1 NORTH           1
  TO   1014 1014        130.00  2   -116.3     5.4   116.5  32                       0.85    6.10    1 NORTH           1
  TO  50002 G2          15.000  1   -300.0     2.5   300.0  50 1.0000LK              0.00   20.23    1 NORTH           1

 BUS   1014 1014        130.00 CKT     MW     MVAR     MVA   % 1.0610PU    4.26  X--- LOSSES ---X X---- AREA -----X X---- ZONE -----X   1014
                                                               137.93KV               MW     MVAR    1 NORTH           1
  TO   1012 1012        130.00  1    157.8   -17.7   158.8  43                       3.14   20.14    1 NORTH           1
  TO   1012 1012        130.00  2    157.8   -17.7   158.8  43                       3.14   20.14    1 NORTH           1
  TO   1013 1013        130.00  1    117.2    -0.5   117.2  32                       0.85    6.10    1 NORTH           1
  TO   1013 1013        130.00  2    117.2    -0.5   117.2  32                       0.85    6.10    1 NORTH           1
  TO  50003 G3          15.000  1   -550.0    36.4   551.2  79 1.0000LK              0.00   57.83    1 NORTH           1

 BUS   1021 1021        130.00 CKT     MW     MVAR     MVA   % 1.0310PU    2.64  X--- LOSSES ---X X---- AREA -----X X---- ZONE -----X   1021
                                                               134.04KV               MW     MVAR    1 NORTH           1
  TO   1022 1022        130.00  1    200.0    -3.5   200.0  55                      11.29   75.26    1 NORTH           1
  TO   1022 1022        130.00  2    200.0    -3.5   200.0  55                      11.29   75.26    1 NORTH           1
  TO  50004 G4          15.000  1   -400.0     7.0   400.1  67 1.0000LK              0.00   37.64    1 NORTH           1

 BUS   1022 1022        130.00 CKT     MW     MVAR     MVA   % 1.0510PU  -19.06  X--- LOSSES ---X X---- AREA -----X X---- ZONE -----X   1022
                                                               136.63KV               MW     MVAR    1 NORTH           1
  TO SWITCHED SHUNT                    0.0   -55.2    55.2
  TO     22 LOAD 1022   20.000  1    280.0    95.2   295.7  53 1.0400LK              0.00   15.29    1 NORTH           1
  TO   1021 1021        130.00  1   -188.7    75.5   203.3  55                      11.29   75.26    1 NORTH           1
  TO   1021 1021        130.00  2   -188.7    75.5   203.3  55                      11.29   75.26    1 NORTH           1
  TO   4022 4022        400.00  1    297.4  -155.2   335.5  40 1.0000UN              0.00   12.23    1 NORTH           1
  TO  50005 G5          15.000  1   -200.0   -35.8   203.2  81 1.0500LK              0.00   24.72    1 NORTH           1

 BUS   1041 1041        130.00 CKT     MW     MVAR     MVA   % 1.0123PU  -81.91  X--- LOSSES ---X X---- AREA -----X X---- ZONE -----X   1041
                                                               131.60KV               MW     MVAR    2 CENTRAL         1
  TO SWITCHED SHUNT                    0.0  -256.2   256.2
  TO      1 LOAD 1041   20.000  1    600.0   180.1   626.5  52 1.0000LK              0.00   31.91    2 CENTRAL         1
  TO   1043 1043        130.00  1   -152.9     6.3   153.1  43                       2.29   13.72    2 CENTRAL         1
  TO   1043 1043        130.00  2   -152.9     6.3   153.1  43                       2.29   13.72    2 CENTRAL         1
  TO   1045 1045        130.00  1   -147.1    31.7   150.5  42                       3.32   26.60    2 CENTRAL         1
  TO   1045 1045        130.00  2   -147.1    31.7   150.5  42                       3.32   26.60    2 CENTRAL         1

 BUS   1042 1042        130.00 CKT     MW     MVAR     MVA   % 1.0145PU  -67.42  X--- LOSSES ---X X---- AREA -----X X---- ZONE -----X   1042
                                                               131.88KV               MW     MVAR    2 CENTRAL         1
  TO      2 LOAD 1042   20.000  1    330.0    89.9   342.0  57 1.0000LK              0.00   18.95    2 CENTRAL         1
  TO   1044 1044        130.00  1      2.4    -0.5     2.5   1                       0.00    0.03    2 CENTRAL         1
  TO   1044 1044        130.00  2      2.4    -0.5     2.5   1                       0.00    0.03    2 CENTRAL         1
  TO   1045 1045        130.00  1     25.2    -5.1    25.7   7                       0.31    1.86    2 CENTRAL         1
  TO  50006 G6          15.000  1   -360.0   -83.8   369.6  92 1.0500LK              0.00   54.88    2 CENTRAL         1

 BUS   1043 1043        130.00 CKT     MW     MVAR     MVA   % 1.0273PU  -76.81  X--- LOSSES ---X X---- AREA -----X X---- ZONE -----X   1043
                                                               133.56KV               MW     MVAR    2 CENTRAL         1
  TO SWITCHED SHUNT                    0.0  -211.1   211.1
  TO      3 LOAD 1043   20.000  1    260.0   100.1   278.6  61 1.0100LK              0.00   16.31    2 CENTRAL         1
  TO   1041 1041        130.00  1    155.2     6.1   155.3  43                       2.29   13.72    2 CENTRAL         1
  TO   1041 1041        130.00  2    155.2     6.1   155.3  43                       2.29   13.72    2 CENTRAL         1
  TO   1044 1044        130.00  1   -195.2    66.5   206.2  57                       4.04   32.32    2 CENTRAL         1
  TO   1044 1044        130.00  2   -195.2    66.5   206.2  57                       4.04   32.32    2 CENTRAL         1
  TO  50007 G7          15.000  1   -180.0   -34.2   183.2  92 1.0500LK              0.00   26.30    2 CENTRAL         1

 BUS   1044 1044        130.00 CKT     MW     MVAR     MVA   % 1.0065PU  -67.74  X--- LOSSES ---X X---- AREA -----X X---- ZONE -----X   1044
                                                               130.84KV               MW     MVAR    2 CENTRAL         1
  TO SWITCHED SHUNT                    0.0  -202.6   202.6
  TO      4 LOAD 1044   20.000  1    840.0   300.1   892.0  56 0.9900LK              0.00   48.11    2 CENTRAL         1
  TO   1042 1042        130.00  1     -2.4    -5.6     6.1   2                       0.00    0.03    2 CENTRAL         1
  TO   1042 1042        130.00  2     -2.4    -5.6     6.1   2                       0.00    0.03    2 CENTRAL         1
  TO   1043 1043        130.00  1    199.3   -35.8   202.4  57                       4.04   32.32    2 CENTRAL         1
  TO   1043 1043        130.00  2    199.3   -35.8   202.4  57                       4.04   32.32    2 CENTRAL         1
  TO   4044 4044        400.00  A   -616.8    -7.4   616.9  62 1.0000UN              0.00   37.57    2 CENTRAL         1
  TO   4044 4044        400.00  B   -616.8    -7.4   616.9  62 1.0000UN              0.00   37.57    2 CENTRAL         1

 BUS   1045 1045        130.00 CKT     MW     MVAR     MVA   % 1.0110PU  -71.69  X--- LOSSES ---X X---- AREA -----X X---- ZONE -----X   1045
                                                               131.43KV               MW     MVAR    2 CENTRAL         1
  TO SWITCHED SHUNT                    0.0  -204.4   204.4
  TO      5 LOAD 1043   20.000  1    720.0   230.3   755.9  54 1.0000LK              0.00   39.94    2 CENTRAL         1
  TO   1041 1041        130.00  1    150.4    -7.7   150.6  43                       3.32   26.60    2 CENTRAL         1
  TO   1041 1041        130.00  2    150.4    -7.7   150.6  43                       3.32   26.60    2 CENTRAL         1
  TO   1042 1042        130.00  1    -24.9     0.8    24.9   7                       0.31    1.86    2 CENTRAL         1
  TO   4045 4045        400.00  A   -498.0    -5.7   498.0  50 1.0000UN              0.00   24.27    2 CENTRAL         1
  TO   4045 4045        400.00  B   -498.0    -5.7   498.0  50 1.0000UN              0.00   24.27    2 CENTRAL         1

 BUS   2031 2031        220.00 CKT     MW     MVAR     MVA   % 1.0277PU  -36.68  X--- LOSSES ---X X---- AREA -----X X---- ZONE -----X   2031
                                                               226.10KV               MW     MVAR    1 NORTH           1
  TO     31 LOAD 2031   20.000  1    100.0    30.0   104.4  52 1.0100LK              0.00    5.26    1 NORTH           1
  TO   2032 2032        220.00  1   -266.9    17.3   267.4  52                       8.13   60.96    1 NORTH           1
  TO   2032 2032        220.00  2   -266.9    17.3   267.4  52                       8.13   60.96    1 NORTH           1
  TO   4031 4031        400.00  1    433.7   -64.5   438.5  53 1.0000UN              0.00   21.85    1 NORTH           1

 BUS   2032 2032        220.00 CKT     MW     MVAR     MVA   % 1.0694PU  -23.95  X--- LOSSES ---X X---- AREA -----X X---- ZONE -----X   2032
                                                               235.27KV               MW     MVAR    1 NORTH           1
  TO     32 LOAD 2032   20.000  1    200.0    50.0   206.2  52 1.0600LK              0.00   10.44    1 NORTH           1
  TO   2031 2031        220.00  1    275.0    42.0   278.2  52                       8.13   60.96    1 NORTH           1
  TO   2031 2031        220.00  2    275.0    42.0   278.2  52                       8.13   60.96    1 NORTH           1
  TO  50008 G8          15.000  1   -750.0  -134.1   761.9  90 1.0500LK              0.00   98.75    1 NORTH           1

 BUS   4011 4011        400.00 CKT     MW     MVAR     MVA   % 1.0222PU   -7.55  X--- LOSSES ---X X---- AREA -----X X---- ZONE -----X   4011
                                                               408.87KV               MW     MVAR    1 NORTH           1
  TO   1011 1011        130.00  1   -224.1   196.2   297.8  24 0.9500LK              0.00    6.13    1 NORTH           1
  TO   4012 4012        400.00  1   -452.4    42.3   454.4  32                       1.99   15.89    1 NORTH           1
  TO   4021 4021        400.00  1    862.4    -8.1   862.5  60                      43.14  431.37    1 NORTH           1
  TO   4022 4022        400.00  1    593.8    17.2   594.0  42                      13.74  137.43    1 NORTH           1
  TO   4071 4071        400.00  1   -111.2  -117.9   162.1  11                       0.69    6.18    4 EQUIV           1
  TO  50009 G9          15.000  1   -668.5  -129.6   681.0  68 1.0500LK              0.00   73.39    1 NORTH           1

 BUS   4012 4012        400.00 CKT     MW     MVAR     MVA   % 1.0231PU   -5.54  X--- LOSSES ---X X---- AREA -----X X---- ZONE -----X   4012
                                                               409.24KV               MW     MVAR    1 NORTH           1
  TO SWITCHED SHUNT                    0.0   104.7   104.7
  TO   1012 1012        130.00  1   -609.4   199.7   641.3  51 0.9500LK              0.00   28.36    1 NORTH           1
  TO   4011 4011        400.00  1    454.4   -47.4   456.9  32                       1.99   15.89    1 NORTH           1
  TO   4022 4022        400.00  1    780.2    43.2   781.4  55                      23.63  206.77    1 NORTH           1
  TO   4071 4071        400.00  1    -25.3  -127.4   129.9   9                       0.15    1.45    4 EQUIV           1
  TO  50010 G10         15.000  1   -600.0  -172.8   624.4  78 1.0500LK              0.00   76.99    1 NORTH           1

 BUS   4021 4021        400.00 CKT     MW     MVAR     MVA   % 1.0487PU  -36.10  X--- LOSSES ---X X---- AREA -----X X---- ZONE -----X   4021
                                                               419.47KV               MW     MVAR    1 NORTH           1
  TO   4011 4011        400.00  1   -819.3   246.5   855.6  58                      43.14  431.37    1 NORTH           1
  TO   4032 4032        400.00  1    403.4   -76.1   410.5  28                       5.92   59.22    1 NORTH           1
  TO   4042 4042        400.00  1    665.9  -141.2   680.7  46                      40.38  242.28    2 CENTRAL         1
  TO  50011 G11         15.000  1   -250.0   -29.3   251.7  84 1.0500LK              0.00   31.76    1 NORTH           1

 BUS   4022 4022        400.00 CKT     MW     MVAR     MVA   % 0.9944PU  -20.88  X--- LOSSES ---X X---- AREA -----X X---- ZONE -----X   4022
                                                               397.77KV               MW     MVAR    1 NORTH           1
  TO   1022 1022        130.00  1   -297.4   167.4   341.3  41 0.9300LK              0.00   12.23    1 NORTH           1
  TO   4011 4011        400.00  1   -580.0    -2.0   580.0  42                      13.74  137.43    1 NORTH           1
  TO   4012 4012        400.00  1   -756.6    56.6   758.7  54                      23.63  206.77    1 NORTH           1
  TO   4031 4031        400.00  1    817.0  -111.0   824.5  59                      27.11  271.09    1 NORTH           1
  TO   4031 4031        400.00  2    817.0  -111.0   824.5  59                      27.11  271.09    1 NORTH           1

 BUS   4031 4031        400.00 CKT     MW     MVAR     MVA   % 1.0365PU  -39.48  X--- LOSSES ---X X---- AREA -----X X---- ZONE -----X   4031
                                                               414.60KV               MW     MVAR    1 NORTH           1
  TO   2031 2031        220.00  1   -433.7    86.3   442.2  53 1.0000LK              0.00   21.85    1 NORTH           1
  TO   4022 4022        400.00  1   -789.9   258.2   831.0  57                      27.11  271.09    1 NORTH           1
  TO   4022 4022        400.00  2   -789.9   258.2   831.0  57                      27.11  271.09    1 NORTH           1
  TO   4032 4032        400.00  1    944.0  -192.2   963.3  66                       8.58   85.83    1 NORTH           1
  TO   4041 4041        400.00  1    689.8  -177.7   712.3  49                      26.71  178.05    2 CENTRAL         1
  TO   4041 4041        400.00  2    689.8  -177.7   712.3  49                      26.71  178.05    2 CENTRAL         1
  TO  50012 G12         15.000  1   -310.0   -55.1   314.9  90 1.0500LK              0.00   43.60    1 NORTH           1

 BUS   4032 4032        400.00 CKT     MW     MVAR     MVA   % 1.0485PU  -44.56  X--- LOSSES ---X X---- AREA -----X X---- ZONE -----X   4032
                                                               419.40KV               MW     MVAR    1 NORTH           1
  TO   4021 4021        400.00  1   -397.4     3.2   397.5  27                       5.92   59.22    1 NORTH           1
  TO   4031 4031        400.00  1   -935.4   245.3   967.0  66                       8.58   85.83    1 NORTH           1
  TO   4042 4042        400.00  1    591.3  -174.4   616.5  42                      32.18  128.72    2 CENTRAL         1
  TO   4044 4044        400.00  1    741.6   -74.1   745.2  51                      30.19  251.62    2 CENTRAL         1

 BUS   4041 4041        400.00 CKT     MW     MVAR     MVA   % 1.0505PU  -54.32  X--- LOSSES ---X X---- AREA -----X X---- ZONE -----X   4041
                                                               420.20KV               MW     MVAR    2 CENTRAL         1
  TO SWITCHED SHUNT                    0.0  -220.7   220.7
  TO     41 LOAD 4041   20.000  1    540.0   160.2   563.3  52 1.0400LK              0.00   28.79    2 CENTRAL         1
  TO   4031 4031        400.00  1   -663.1    94.7   669.8  46                      26.71  178.05    1 NORTH           1
  TO   4031 4031        400.00  2   -663.1    94.7   669.8  46                      26.71  178.05    1 NORTH           1
  TO   4044 4044        400.00  1    631.0   -19.2   631.3  43                      10.85  108.49    2 CENTRAL         1
  TO   4061 4061        400.00  1    155.2   -60.0   166.4  11                       1.32    9.88    3 SOUTH           1
  TO  50013 G13         15.000  1     -0.0   -49.6    49.6  17 1.0500LK              0.00    0.82    2 CENTRAL         1

 BUS   4042 4042        400.00 CKT     MW     MVAR     MVA   % 1.0428PU  -57.40  X--- LOSSES ---X X---- AREA -----X X---- ZONE -----X   4042
                                                               417.10KV               MW     MVAR    2 CENTRAL         1
  TO     42 LOAD 4042   20.000  1    400.0   149.6   427.1  53 1.0300LK              0.00   22.25    2 CENTRAL         1
  TO   4021 4021        400.00  1   -625.6    55.3   628.0  43                      40.38  242.28    1 NORTH           1
  TO   4032 4032        400.00  1   -559.1    84.4   565.4  39                      32.18  128.72    1 NORTH           1
  TO   4043 4043        400.00  1    768.4   -47.4   769.8  53                      10.87   81.50    2 CENTRAL         1
  TO   4044 4044        400.00  1    646.3   -40.7   647.6  44                       7.68   76.85    2 CENTRAL         1
  TO  50014 G14         15.000  1   -630.0  -201.3   661.4  94 1.0500LK              0.00   95.04    2 CENTRAL         1

 BUS   4043 4043        400.00 CKT     MW     MVAR     MVA   % 1.0369PU  -63.54  X--- LOSSES ---X X---- AREA -----X X---- ZONE -----X   4043
                                                               414.75KV               MW     MVAR    2 CENTRAL         1
  TO SWITCHED SHUNT                    0.0  -215.0   215.0
  TO     43 LOAD 4043   20.000  1    900.0   303.1   949.7  53 1.0200LK              0.00   48.48    2 CENTRAL         1
  TO   4042 4042        400.00  1   -757.5    75.1   761.2  52                      10.87   81.50    2 CENTRAL         1
  TO   4044 4044        400.00  1    131.2   -54.1   141.9  10                       0.17    1.73    2 CENTRAL         1
  TO   4046 4046        400.00  1    112.1   -14.0   113.0   8                       0.12    1.17    2 CENTRAL         1
  TO   4047 4047        400.00  1   -385.8   -95.1   397.4  27                       2.84   28.43    2 CENTRAL         1
