/*8002 'GENCLS' 1 0 0 /
4042 'GENROU' 1 7 .05 1.5 .05 6 0 2.2 2 .3 .4 .2 .15 .1 .3/
4047 'GENROU' 1 7 .05 1.5 .05 6 0 2.2 2 .3 .4 .2 .15 .1 .3/
4047 'GENROU' 2 7 .05 1.5 .05 6 0 2.2 2 .3 .4 .2 .15 .1 .3/
4051 'GENROU' 1 7 .05 1.5 .05 6 0 2.2 2 .3 .4 .2 .15 .1 .3/
4051 'GENROU' 2 7 .05 1.5 .05 6 0 2.2 2 .3 .4 .2 .15 .1 .3/
4062 'GENROU' 1 7 .05 1.5 .05 6 0 2.2 2 .3 .4 .2 .15 .1 .3/
4063 'GENROU' 1 7 .05 1.5 .05 6 0 2.2 2 .3 .4 .2 .15 .1 .3/
4062 'GENROU' 2 7 .05 1.5 .05 6 0 2.2 2 .3 .4 .2 .15 .1 .3/
1042 'GENROU' 1 7 .05 1.5 .05 6 0 2.2 2 .3 .4 .2 .15 .1 .3/
1043 'GENROU' 1 7 .05 1.5 .05 6 0 2.2 2 .3 .4 .2 .15 .1 .3/
4011 'GENSAL' 1 5 .05     .1  3 0 1.1 .7 .25  .2 .15 .1 .3/
4012 'GENSAL' 1 5 .05     .1  3 0 1.1 .7 .25  .2 .15 .1 .3/
4021 'GENSAL' 1 5 .05     .1  3 0 1.1 .7 .25  .2 .15 .1 .3/
4031 'GENSAL' 1 5 .05     .1  3 0 1.1 .7 .25  .2 .15 .1 .3/
4041 'GENSAL' 1 7 .05     .1  2 0 1.55 1 .3  .2 .15 .1 .3/
1012 'GENSAL' 1 5 .05     .1  3 0 1.1 .7 .25  .2 .15 .1 .3/
1013 'GENSAL' 1 5 .05     .1  3 0 1.1 .7 .25  .2 .15 .1 .3/
1014 'GENSAL' 1 5 .05     .1  3 0 1.1 .7 .25  .2 .15 .1 .3/
1021 'GENSAL' 1 5 .05     .1  3 0 1.1 .7 .25  .2 .15 .1 .3/
1022 'GENSAL' 1 5 .05     .1  3 0 1.1 .7 .25  .2 .15 .1 .3/
2032 'GENSAL' 1 5 .05     .1  3 0 1.1 .7 .25  .2 .15 .1 .3/
4011 'SEXS'   1 .2 20 50 .1 0 4/
4012 'SEXS'   1 .2 20 50 .1 0 4/
4021 'SEXS'   1 .2 20 50 .1 0 4/
4031 'SEXS'   1 .2 20 50 .1 0 4/
4041 'SEXS'   1 .2 20 50 .1 0 4/
1012 'SEXS'   1 .2 20 50 .1 0 4/
1013 'SEXS'   1 .2 20 50 .1 0 4/
1014 'SEXS'   1 .2 20 50 .1 0 4/
1021 'SEXS'   1 .2 20 50 .1 0 4/
1022 'SEXS'   1 .2 20 50 .1 0 4/
2032 'SEXS'   1 .2 20 50 .1 0 4/
1042 'SEXS'   1 .1 50 120 .1 0 5/
1043 'SEXS'   1 .1 50 120 .1 0 5/
4042 'SEXS'   1 .1 50 120 .1 0 5/
4047 'SEXS'   1 .1 50 120 .1 0 5/
4047 'SEXS'   2 .1 50 120 .1 0 5/
4051 'SEXS'   1 .1 50 120 .1 0 5/
4051 'SEXS'   2 .1 50 120 .1 0 5/
4062 'SEXS'   1 .1 50 120 .1 0 5/
4063 'SEXS'   1 .1 50 120 .1 0 5/
4062 'SEXS'   2 .1 50 120 .1 0 5/
4011 'HYGOV'  1 .04 .8 5 .05 .2 .1 .95 0 1 1 0 0/
4012 'HYGOV'  1 .04 .8 5 .05 .2 .1 .95 0 1 1 0 0/
4021 'HYGOV'  1 .04 .8 5 .05 .2 .1 .95 0 1 1 0 0/
4031 'HYGOV'  1 .04 .8 5 .05 .2 .1 .95 0 1 1 0 0/
1012 'HYGOV'  1 .04 .8 5 .05 .2 .1 .95 0 1 1 0 0/
1013 'HYGOV'  1 .04 .8 5 .05 .2 .1 .95 0 1 1 0 0/
1014 'HYGOV'  1 .04 .8 5 .05 .2 .1 .95 0 1 1 0 0/
1021 'HYGOV'  1 .04 .8 5 .05 .2 .1 .95 0 1 1 0 0/
1022 'HYGOV'  1 .04 .8 5 .05 .2 .1 .95 0 1 1 0 0/
2032 'HYGOV'  1 .04 .8 5 .05 .2 .1 .95 0 1 1 0 0/
4011 'USRMDL' 1 'STABEX' 3, 0, 0, 8, 6, 0, 1 4 1 2 .3 1 .05 .05/
4012 'USRMDL' 1 'STABEX' 3, 0, 0, 8, 6, 0, 1 4 1 2 .3 1 .05 .05/
4021 'USRMDL' 1 'STABEX' 3, 0, 0, 8, 6, 0, 1 4 1 2 .3 1 .05 .05/
4031 'USRMDL' 1 'STABEX' 3, 0, 0, 8, 6, 0, 1 4 1 2 .3 1 .05 .05/
4041 'USRMDL' 1 'STABEX' 3, 0, 0, 8, 6, 0, 1 4 0 2  0 1 .05 .05/
1012 'USRMDL' 1 'STABEX' 3, 0, 0, 8, 6, 0, 1 4 1 2 .3 1 .05 .05/
1013 'USRMDL' 1 'STABEX' 3, 0, 0, 8, 6, 0, 1 4 1 2 .3 1 .05 .05/
1014 'USRMDL' 1 'STABEX' 3, 0, 0, 8, 6, 0, 1 4 1 2 .3 1 .05 .05/
1021 'USRMDL' 1 'STABEX' 3, 0, 0, 8, 6, 0, 1 4 1 2 .3 1 .05 .05/
1022 'USRMDL' 1 'STABEX' 3, 0, 0, 8, 6, 0, 1 4 1 2 .3 1 .05 .05/
2032 'USRMDL' 1 'STABEX' 3, 0, 0, 8, 6, 0, 1 4 1 2 .3 1 .05 .05/
4062 'USRMDL' 1 'STABEX' 3, 0, 0, 8, 6, 0, 1 4 1 2 .3 1 .05 .05/
4063 'USRMDL' 1 'STABEX' 3, 0, 0, 8, 6, 0, 1 4 1 2 .3 1 .05 .05/
4063 'USRMDL' 2 'STABEX' 3, 0, 0, 8, 6, 0, 1 4 1 2 .3 1 .05 .05/
4051 'USRMDL' 1 'STABEX' 3, 0, 0, 8, 6, 0, 1 4 1 2 .3 1 .05 .05/
4051 'USRMDL' 2 'STABEX' 3, 0, 0, 8, 6, 0, 1 4 1 2 .3 1 .05 .05/
4047 'USRMDL' 1 'STABEX' 3, 0, 0, 8, 6, 0, 1 4 1 2 .3 1 .05 .05/
4047 'USRMDL' 2 'STABEX' 3, 0, 0, 8, 6, 0, 1 4 1 2 .3 1 .05 .05/
4042 'USRMDL' 1 'STABEX' 3, 0, 0, 8, 6, 0, 1 4 1 2 .3 1 .05 .05/
1042 'USRMDL' 1 'STABEX' 3, 0, 0, 8, 6, 0, 1 4 1 2 .3 1 .05 .05/
1043 'USRMDL' 1 'STABEX' 3, 0, 0, 8, 6, 0, 1 4 1 2 .3 1 .05 .05/

 7201 'GENROU'  1    10.0000       .50000E-01   1.0000       .50000E-01
        6       .00000E+00   2.2200       2.1300       .36000    
        .46800       .22500       .16875       .10890       .37795    /
 7201 'USRMDL' 1 'STABEX' 3, 0, 0, 8, 6, 0,    1.0000       1.0000       .250000E+00   2.0000    
        .55000       1.0000       .10000E-01   .30000E-01/
 7201 'IEEET2'  1    .00000E+00    800.00       .40000E-01   5.3200    
       -4.0500       1.0000       .44000       .66700E-01   2.0000    
        .44000       6.5000       .54000E-01   8.0000       .20200    /
 7201 'IEESGO'  1    .10000E-01   .00000E+00   .15000       .30000    
        8.0000       .40000       .00000E+00   .70000       .43000    
        1.0000       .00000E+00/

 7203 'GENROU'  1    10.0000       .50000E-01   1.0000       .50000E-01
        6       .00000E+00   2.2200       2.1300       .36000    
        .46800       .22500       .16875       .10890       .37795    /
 7203 'USRMDL' 1 'STABEX' 3, 0, 0, 8, 6, 0,    1.0000       1.0000       .250000E+00   2.0000    
        .55000       1.0000       .10000E-01   .30000E-01/
 7203 'IEEET2'  1    .00000E+00    800.00       .40000E-01   5.3200    
       -4.0500       1.0000       .44000       .66700E-01   2.0000    
        .44000       6.5000       .54000E-01   8.0000       .20200    /
 7203 'IEESGO'  1    .10000E-01   .00000E+00   .15000       .30000    
        8.0000       .40000       .00000E+00   .70000       .43000    
        1.0000       .00000E+00/

 7204 'GENROU'  1    10.0000       .50000E-01   1.0000       .50000E-01
        6       .00000E+00   2.2200       2.1300       .36000    
        .46800       .22500       .16875       .10890       .37795    /
 7204 'USRMDL' 1 'STABEX' 3, 0, 0, 8, 6, 0,    1.0000       1.0000       .250000E+00   2.0000    
        .55000       1.0000       .10000E-01   .30000E-01/
 7204 'IEEET2'  1    .00000E+00    800.00       .40000E-01   5.3200    
       -4.0500       1.0000       .44000       .66700E-01   2.0000    
        .44000       6.5000       .54000E-01   8.0000       .20200    /
 7204 'IEESGO'  1    .10000E-01   .00000E+00   .15000       .30000    
        8.0000       .40000       .00000E+00   .70000       .43000    
        1.0000       .00000E+00/

 7205 'GENROU'  1    10.0000       .50000E-01   1.0000       .50000E-01
        6       .00000E+00   2.2200       2.1300       .36000    
        .46800       .22500       .16875       .10890       .37795    /
 7205 'USRMDL' 1 'STABEX' 3, 0, 0, 8, 6, 0,    1.0000       1.0000       .250000E+00   2.0000    
        .55000       1.0000       .10000E-01   .30000E-01/
 7205 'IEEET2'  1    .00000E+00    800.00       .40000E-01   5.3200    
       -4.0500       1.0000       .44000       .66700E-01   2.0000    
        .44000       6.5000       .54000E-01   8.0000       .20200    /
 7205 'IEESGO'  1    .10000E-01   .00000E+00   .15000       .30000    
        8.0000       .40000       .00000E+00   .70000       .43000    
        1.0000       .00000E+00/

 7100 'GENSAL'  1    5.0000       .60000E-01   .10000        3.200    
        .00000E+00   .75000       .50000       .25000       .15385    
        .11538       .10239       .27420    /
 7100 'USRMDL' 1 'STABEX' 3, 0, 0, 8, 6, 0,    1.0000       4.5000       .250000E+00   2.0000    
        .55000       1.0000       .10000E-01   .30000E-01/
 7100 'SCRX'    1    .25385       13.000       61.000       .50000E-01
        .00000E+00   4.0000       .00000E+00   .00000E+00/
 7100 'HYGOV'   1    .60000E-01   .40000       5.0000       .50000E-01
        .20000       .10000       1.0000       .00000E+00   1.0000    
        1.0100       .50000       .10000    /
 
 7101 'GENSAL'  1    5.0000       .60000E-01   .10000        3.200    
        .00000E+00   .75000       .50000       .25000       .15385    
        .11538       .10239       .27420    /
 7101 'USRMDL' 1 'STABEX' 3, 0, 0, 8, 6, 0,    1.0000       4.5000       .250000E+00   2.0000    
        .55000       1.0000       .10000E-01   .30000E-01/
 7101 'SCRX'    1    .25385       13.000       61.000       .50000E-01
        .00000E+00   4.0000       .00000E+00   .00000E+00/
 7101 'HYGOV'   1    .60000E-01   .40000       5.0000       .50000E-01
        .20000       .10000       1.0000       .00000E+00   1.0000    
        1.0100       .50000       .10000    /

 5100 'GENSAL'  1    4.9629       .50000E-01   .15000       3.9871    
        .00000E+00   1.1332       .68315       .24302       .15135    
        .13405       .10000       .30000    /
 5100 'SEXS'    1    .50000E-01   100.00       200.00       .50000    
        .00000E+00   4.0000    /
 5100 'HYGOV'   1    .60000E-01   .40000       5.0000       .50000E-01
        .20000       .20000       1.0000       .00000E+00   1.0000    
        1.1000       .50000       .10000    /
        
 5300 'GENSAL'  1    6.4000       .50000E-01   .15000       3.5000    
        .00000E+00   1.1400       .84000       .34000       .26000    
        .20000       .10000       .30000    /
 5300 'USRMDL' 1 'STABEX' 3, 0, 0, 8, 6, 0,    1.0000       4.5000       .00000E+00   2.0000    
        .55000       1.0000       .10000E-01   .30000E-01/
 5300 'SCRX'    1    .25385       13.000       61.000       .50000E-01
        .00000E+00   4.0000       .00000E+00   .00000E+00/
 5300 'HYGOV'   1    .60000E-01   .40000       5.0000       .50000E-01
        .20000       .20000       1.0000       .00000E+00   1.0000    
        1.1000       .50000       .10000    /
        
 5400 'GENSAL'  1    6.5000       .50000E-01   .15000       4.1000    
        .00000E+00   1.0200       .63000       .25000       .16000    
        .13000       .10000       .30000    /
 5400 'SEXS'    1    .50000E-01   100.00       200.00       .50000    
        .00000E+00   4.0000    /
 5400 'HYGOV'   1    .60000E-01   .40000       5.0000       .50000E-01
        .20000       .20000       1.0000       .00000E+00   1.0000    
        1.1000       .50000       .10000    /
        
 5500 'GENSAL'  1    7.1980       .50000E-01   .15000       3.0000    
        .00000E+00   1.2364       .65567       .37415       .22825    
        .16194       .10000       .30000    /
 5500 'SEXS'    1    .50000E-01   100.00       200.00       .50000    
        .00000E+00   4.0000    /
 5500 'HYGOV'   1    .60000E-01   .40000       5.0000       .50000E-01
        .20000       .20000       1.0000       .00000E+00   1.0000    
        1.1000       .50000       .10000    /
        
 5600 'GENSAL'  1    7.8500       .50000E-01   .15000       3.5000    
        .00000E+00   1.0000       .51325       .38000       .28000    
        .21000       .10000       .30000    /
 5600 'SCRX'    1    .25385       13.000       61.000       .50000E-01
        .00000E+00   4.0000       .00000E+00   .00000E+00/
 5600 'HYGOV'   1    .60000E-01   .30000       5.0000       .50000E-01
        .20000       .20000       1.0000       .00000E+00   1.0000    
        1.1000       .50000       .10000    /
        
 6000 'GENSAL'  1    9.7000       .50000E-01   .15000       3.5000    
        .00000E+00   1.2800       .94000       .37000       .28000    
        .20000       .10000       .30000    /
/* 6000 'IEEEST'  1     3     0     .00000E+00   .00000E+00   .00000E+00
/*        .00000E+00   .00000E+00   .00000E+00   .10000       .10000    
/*        .10000       .10000       5.0000       5.0000       1.0000    
/*        4.0000      -4.0000       .00000E+00   .00000E+00/
 6000 'SEXS'    1    1.0000       .10000       20.000       .10000    
       -4.0000       4.0000    /
 6000 'HYGOV'   1    .60000E-01   .30000       5.0000       .50000E-01
        .20000       .20000       1.0000       .00000E+00   1.0000    
        1.1000       .50000       .10000    /

 6100 'GENSAL'  1    9.9000       .50000E-01   .15000       3.0000    
        .00000E+00   1.2000       .73000       .37000       .18000    
        .15000       .10000       .30000    /
 6100 'USRMDL' 1 'STABEX' 3, 0, 0, 8, 6, 0,    1.0000       4.5000       .00000E+00   2.0000    
        .55000       1.0000       .10000E-01   .30000E-01/
 6100 'SCRX'    1    .25385       13.000       61.000       .50000E-01
        .00000E+00   4.0000       .00000E+00   .00000E+00/
 6100 'HYGOV'   1    .60000E-01   .40000       5.0000       .50000E-01
        .20000       .20000       1.0000       .00000E+00   1.0000    
        1.1000       .50000       .10000    /
        
 8500 'GENROU'  1    10.00       .50000E-01   1.0000       .50000E-01
        7.0000       .00000E+00   2.4200       2.0000       .23000    
        .41080       .17062       .14812       .10890       .37795    /
 8500 'USRMDL' 1 'STABEX' 3, 0, 0, 8, 6, 0,    1.0000        4.5000       .00000E+00   2.0000    
        .55000       1.0000       .10000E-01   .30000E-01/
 8500 'SCRX'    1    .00000E+00   .40000E-01   10.000       .40000E-01
        .00000E+00   5.0000       .00000E+00   .00000E+00/
 8500 'IEESGO'  1    .10000E-01   .00000E+00   .15000       .30000    
        8.0000       .40000       .00000E+00   .70000       .43000    
        1.0000       .00000E+00/

/*'FENNOSKAN' 'VSCDCT'
/*  0   7203   0   4046
/*0.05    0.0     2.4    0.02   0.02    1.0     0     1.4    0.170   103  -103  1.2   1.0  
/*0.05    0.0     2.4    0.02   0.02    1.0     0     1.4    0.170   103  -103  1.2   1.0  
/*0.05    0.05     /

/*'NORDBALT' 'VSCDCT'
/*  0   4051   0   8001
/*0.05    0.0     2.4    0.02   0.02    1.0     0     1.4    0.170   115  -115  1.2   1.0  
/*0.05    0.0     2.4    0.02   0.02    1.0     0     1.4    0.170   115  -115  1.2   1.0  
/*0.05    0.05     /

/*'SOUTHWEST' 'VSCDCT'
/*  0   4045   0   4063
/*0.05    0.0     2.4    0.02   0.02    1.0     0     1.4    0.170   190  -190  1.2   1.0  
/*0.05    0.0     2.4    0.02   0.02    1.0     0     1.4    0.170   190  -190  1.2   1.0  
/*0.05    0.05     /

0 'LDFRAL' * 0.75 0 0.75 0/
0 'NETFRQ'/
4031 'RELANG' 1/